Hi let's create our first repository.
this is a new branch names feature-a!
new line...
first branch
